<?xml version="1.0" encoding="UTF-8"?>

<!-- generated on Thursday 11 January 2018 12:14:36 AM IST by Netedit Version 0.32.0
<?xml version="1.0" encoding="UTF-8"?>

<configuration xmlns:xsi="http://www.w3.org/2001/XMLSchema-instance" xsi:noNamespaceSchemaLocation="http://sumo.dlr.de/xsd/netconvertConfiguration.xsd">

    <input>
        <sumo-net-file value="/home/umang/Documents/SUMO/3junctions/3junctions.net.xml"/>
    </input>

    <output>
        <output-file value="/home/umang/Documents/SUMO/3junctions/3junctions.net.xml"/>
    </output>

    <processing>
        <no-turnarounds value="true"/>
        <offset.disable-normalization value="true"/>
        <lefthand value="false"/>
        <junctions.corner-detail value="0"/>
        <rectangular-lane-cut value="false"/>
        <walkingareas value="false"/>
    </processing>

</configuration>
-->

<net version="0.27" xmlns:xsi="http://www.w3.org/2001/XMLSchema-instance" xsi:noNamespaceSchemaLocation="http://sumo.dlr.de/xsd/net_file.xsd">

    <location netOffset="0.00,0.00" convBoundary="-1000.00,-353.50,1000.00,853.50" origBoundary="-10000000000.00,-10000000000.00,10000000000.00,10000000000.00" projParameter="!"/>

    <edge id=":L_0" function="internal">
        <lane id=":L_0_0" index="0" speed="13.89" length="41.46" shape="-487.96,23.71 -496.09,16.95 -505.02,12.11 -514.75,9.22 -525.28,8.25"/>
    </edge>
    <edge id=":L_1" function="internal">
        <lane id=":L_1_0" index="0" speed="13.89" length="50.56" shape="-487.96,23.71 -523.71,-12.04"/>
    </edge>
    <edge id=":L_2" function="internal">
        <lane id=":L_2_0" index="0" speed="13.89" length="13.60" shape="-485.62,21.38 -494.26,14.19 -496.34,13.07"/>
    </edge>
    <edge id=":L_3" function="internal">
        <lane id=":L_3_0" index="0" speed="13.89" length="50.56" shape="-485.62,21.38 -521.38,-14.38"/>
    </edge>
    <edge id=":L_4" function="internal">
        <lane id=":L_4_0" index="0" speed="13.89" length="20.39" shape="-485.62,21.38 -494.82,9.86 -495.66,4.27"/>
    </edge>
    <edge id=":L_5" function="internal">
        <lane id=":L_5_0" index="0" speed="13.89" length="50.56" shape="-483.29,19.04 -519.04,-16.71"/>
    </edge>
    <edge id=":L_6" function="internal">
        <lane id=":L_6_0" index="0" speed="13.89" length="12.27" shape="-483.29,19.04 -490.52,9.99 -490.62,9.31"/>
    </edge>
    <edge id=":L_28" function="internal">
        <lane id=":L_28_0" index="0" speed="13.89" length="30.45" shape="-496.34,13.07 -503.75,9.06 -514.09,5.98 -525.28,4.95"/>
    </edge>
    <edge id=":L_29" function="internal">
        <lane id=":L_29_0" index="0" speed="13.89" length="25.72" shape="-495.66,4.27 -496.06,1.63 -489.36,-3.30 -474.72,-4.95"/>
    </edge>
    <edge id=":L_30" function="internal">
        <lane id=":L_30_0" index="0" speed="13.89" length="23.98" shape="-490.62,9.31 -491.49,3.52 -486.23,-0.36 -474.72,-1.65"/>
    </edge>
    <edge id=":L_7" function="internal">
        <lane id=":L_7_0" index="0" speed="13.89" length="6.64" shape="-474.72,8.25 -476.83,8.49 -477.79,9.20 -477.61,10.38 -476.29,12.04"/>
    </edge>
    <edge id=":L_8" function="internal">
        <lane id=":L_8_0" index="0" speed="13.89" length="50.56" shape="-474.72,8.25 -525.28,8.25"/>
    </edge>
    <edge id=":L_9" function="internal">
        <lane id=":L_9_0" index="0" speed="13.89" length="7.15" shape="-474.72,4.95 -479.96,5.54 -481.47,6.65"/>
    </edge>
    <edge id=":L_10" function="internal">
        <lane id=":L_10_0" index="0" speed="13.89" length="50.56" shape="-474.72,4.95 -525.28,4.95"/>
    </edge>
    <edge id=":L_11" function="internal">
        <lane id=":L_11_0" index="0" speed="13.89" length="26.27" shape="-474.72,4.95 -487.88,3.74 -500.05,0.12 -500.36,-0.05"/>
    </edge>
    <edge id=":L_12" function="internal">
        <lane id=":L_12_0" index="0" speed="13.89" length="50.56" shape="-474.72,1.65 -525.28,1.65"/>
    </edge>
    <edge id=":L_13" function="internal">
        <lane id=":L_13_0" index="0" speed="13.89" length="14.49" shape="-474.72,1.65 -487.23,0.50 -489.08,-0.05"/>
    </edge>
    <edge id=":L_31" function="internal">
        <lane id=":L_31_0" index="0" speed="13.89" length="9.36" shape="-481.47,6.65 -482.36,7.31 -481.91,10.25 -478.62,14.38"/>
    </edge>
    <edge id=":L_32" function="internal">
        <lane id=":L_32_0" index="0" speed="13.89" length="25.56" shape="-500.36,-0.05 -511.21,-5.92 -521.38,-14.38"/>
    </edge>
    <edge id=":L_33" function="internal">
        <lane id=":L_33_0" index="0" speed="13.89" length="34.74" shape="-489.08,-0.05 -498.78,-2.94 -509.39,-8.68 -519.04,-16.71"/>
    </edge>
    <edge id=":L_14" function="internal">
        <lane id=":L_14_0" index="0" speed="13.89" length="41.46" shape="-512.04,-23.71 -503.91,-16.95 -494.98,-12.11 -485.25,-9.22 -474.72,-8.25"/>
    </edge>
    <edge id=":L_15" function="internal">
        <lane id=":L_15_0" index="0" speed="13.89" length="50.56" shape="-512.04,-23.71 -476.29,12.04"/>
    </edge>
    <edge id=":L_16" function="internal">
        <lane id=":L_16_0" index="0" speed="13.89" length="13.60" shape="-514.38,-21.38 -505.74,-14.19 -503.66,-13.07"/>
    </edge>
    <edge id=":L_17" function="internal">
        <lane id=":L_17_0" index="0" speed="13.89" length="50.56" shape="-514.38,-21.38 -478.62,14.38"/>
    </edge>
    <edge id=":L_18" function="internal">
        <lane id=":L_18_0" index="0" speed="13.89" length="20.39" shape="-514.38,-21.38 -505.18,-9.86 -504.34,-4.27"/>
    </edge>
    <edge id=":L_19" function="internal">
        <lane id=":L_19_0" index="0" speed="13.89" length="50.56" shape="-516.71,-19.04 -480.96,16.71"/>
    </edge>
    <edge id=":L_20" function="internal">
        <lane id=":L_20_0" index="0" speed="13.89" length="12.27" shape="-516.71,-19.04 -509.48,-9.99 -509.38,-9.31"/>
    </edge>
    <edge id=":L_34" function="internal">
        <lane id=":L_34_0" index="0" speed="13.89" length="30.45" shape="-503.66,-13.07 -496.25,-9.06 -485.91,-5.98 -474.72,-4.95"/>
    </edge>
    <edge id=":L_35" function="internal">
        <lane id=":L_35_0" index="0" speed="13.89" length="25.72" shape="-504.34,-4.27 -503.94,-1.63 -510.64,3.30 -525.28,4.95"/>
    </edge>
    <edge id=":L_36" function="internal">
        <lane id=":L_36_0" index="0" speed="13.89" length="23.98" shape="-509.38,-9.31 -508.51,-3.52 -513.77,0.36 -525.28,1.65"/>
    </edge>
    <edge id=":L_21" function="internal">
        <lane id=":L_21_0" index="0" speed="13.89" length="6.64" shape="-525.28,-8.25 -523.17,-8.49 -522.21,-9.20 -522.39,-10.38 -523.71,-12.04"/>
    </edge>
    <edge id=":L_22" function="internal">
        <lane id=":L_22_0" index="0" speed="13.89" length="50.56" shape="-525.28,-8.25 -474.72,-8.25"/>
    </edge>
    <edge id=":L_23" function="internal">
        <lane id=":L_23_0" index="0" speed="13.89" length="7.15" shape="-525.28,-4.95 -520.04,-5.54 -518.53,-6.65"/>
    </edge>
    <edge id=":L_24" function="internal">
        <lane id=":L_24_0" index="0" speed="13.89" length="50.56" shape="-525.28,-4.95 -474.72,-4.95"/>
    </edge>
    <edge id=":L_25" function="internal">
        <lane id=":L_25_0" index="0" speed="13.89" length="26.27" shape="-525.28,-4.95 -512.12,-3.74 -499.95,-0.12 -499.64,0.05"/>
    </edge>
    <edge id=":L_26" function="internal">
        <lane id=":L_26_0" index="0" speed="13.89" length="50.56" shape="-525.28,-1.65 -474.72,-1.65"/>
    </edge>
    <edge id=":L_27" function="internal">
        <lane id=":L_27_0" index="0" speed="13.89" length="14.49" shape="-525.28,-1.65 -512.77,-0.50 -510.92,0.05"/>
    </edge>
    <edge id=":L_37" function="internal">
        <lane id=":L_37_0" index="0" speed="13.89" length="9.36" shape="-518.53,-6.65 -517.64,-7.31 -518.09,-10.25 -521.38,-14.38"/>
    </edge>
    <edge id=":L_38" function="internal">
        <lane id=":L_38_0" index="0" speed="13.89" length="25.56" shape="-499.64,0.05 -488.79,5.92 -478.62,14.38"/>
    </edge>
    <edge id=":L_39" function="internal">
        <lane id=":L_39_0" index="0" speed="13.89" length="34.74" shape="-510.92,0.05 -501.22,2.94 -490.61,8.68 -480.96,16.71"/>
    </edge>
    <edge id=":R_0" function="internal">
        <lane id=":R_0_0" index="0" speed="13.89" length="41.46" shape="525.28,8.25 514.75,9.22 505.02,12.11 496.09,16.95 487.96,23.71"/>
    </edge>
    <edge id=":R_1" function="internal">
        <lane id=":R_1_0" index="0" speed="13.89" length="50.56" shape="525.28,8.25 474.72,8.25"/>
    </edge>
    <edge id=":R_2" function="internal">
        <lane id=":R_2_0" index="0" speed="13.89" length="13.60" shape="525.28,4.95 514.09,5.98 511.83,6.65"/>
    </edge>
    <edge id=":R_3" function="internal">
        <lane id=":R_3_0" index="0" speed="13.89" length="50.56" shape="525.28,4.95 474.72,4.95"/>
    </edge>
    <edge id=":R_4" function="internal">
        <lane id=":R_4_0" index="0" speed="13.89" length="20.39" shape="525.28,4.95 510.64,3.30 506.08,-0.05"/>
    </edge>
    <edge id=":R_5" function="internal">
        <lane id=":R_5_0" index="0" speed="13.89" length="50.56" shape="525.28,1.65 474.72,1.65"/>
    </edge>
    <edge id=":R_6" function="internal">
        <lane id=":R_6_0" index="0" speed="13.89" length="12.27" shape="525.28,1.65 513.77,0.36 513.22,-0.05"/>
    </edge>
    <edge id=":R_28" function="internal">
        <lane id=":R_28_0" index="0" speed="13.89" length="30.45" shape="511.83,6.65 503.75,9.06 494.26,14.19 485.62,21.38"/>
    </edge>
    <edge id=":R_29" function="internal">
        <lane id=":R_29_0" index="0" speed="13.89" length="25.72" shape="506.08,-0.05 503.94,-1.63 505.18,-9.86 514.38,-21.38"/>
    </edge>
    <edge id=":R_30" function="internal">
        <lane id=":R_30_0" index="0" speed="13.89" length="23.98" shape="513.22,-0.05 508.51,-3.52 509.48,-9.99 516.71,-19.04"/>
    </edge>
    <edge id=":R_7" function="internal">
        <lane id=":R_7_0" index="0" speed="13.89" length="6.64" shape="523.71,-12.04 522.39,-10.38 522.21,-9.20 523.17,-8.49 525.28,-8.25"/>
    </edge>
    <edge id=":R_8" function="internal">
        <lane id=":R_8_0" index="0" speed="13.89" length="50.56" shape="523.71,-12.04 487.96,23.71"/>
    </edge>
    <edge id=":R_9" function="internal">
        <lane id=":R_9_0" index="0" speed="13.89" length="7.15" shape="521.38,-14.38 518.09,-10.25 517.80,-8.40"/>
    </edge>
    <edge id=":R_10" function="internal">
        <lane id=":R_10_0" index="0" speed="13.89" length="50.56" shape="521.38,-14.38 485.62,21.38"/>
    </edge>
    <edge id=":R_11" function="internal">
        <lane id=":R_11_0" index="0" speed="13.89" length="26.27" shape="521.38,-14.38 511.21,-5.92 500.05,0.12 499.71,0.22"/>
    </edge>
    <edge id=":R_12" function="internal">
        <lane id=":R_12_0" index="0" speed="13.89" length="50.56" shape="519.04,-16.71 483.29,19.04"/>
    </edge>
    <edge id=":R_13" function="internal">
        <lane id=":R_13_0" index="0" speed="13.89" length="14.49" shape="519.04,-16.71 509.39,-8.68 507.69,-7.76"/>
    </edge>
    <edge id=":R_31" function="internal">
        <lane id=":R_31_0" index="0" speed="13.89" length="9.36" shape="517.80,-8.40 517.64,-7.31 520.04,-5.54 525.28,-4.95"/>
    </edge>
    <edge id=":R_32" function="internal">
        <lane id=":R_32_0" index="0" speed="13.89" length="25.56" shape="499.71,0.22 487.88,3.74 474.72,4.95"/>
    </edge>
    <edge id=":R_33" function="internal">
        <lane id=":R_33_0" index="0" speed="13.89" length="34.74" shape="507.69,-7.76 498.78,-2.94 487.23,0.50 474.72,1.65"/>
    </edge>
    <edge id=":R_14" function="internal">
        <lane id=":R_14_0" index="0" speed="13.89" length="41.46" shape="474.72,-8.25 485.25,-9.22 494.98,-12.11 503.91,-16.95 512.04,-23.71"/>
    </edge>
    <edge id=":R_15" function="internal">
        <lane id=":R_15_0" index="0" speed="13.89" length="50.56" shape="474.72,-8.25 525.28,-8.25"/>
    </edge>
    <edge id=":R_16" function="internal">
        <lane id=":R_16_0" index="0" speed="13.89" length="13.60" shape="474.72,-4.95 485.91,-5.98 488.17,-6.65"/>
    </edge>
    <edge id=":R_17" function="internal">
        <lane id=":R_17_0" index="0" speed="13.89" length="50.56" shape="474.72,-4.95 525.28,-4.95"/>
    </edge>
    <edge id=":R_18" function="internal">
        <lane id=":R_18_0" index="0" speed="13.89" length="20.39" shape="474.72,-4.95 489.36,-3.30 493.92,0.05"/>
    </edge>
    <edge id=":R_19" function="internal">
        <lane id=":R_19_0" index="0" speed="13.89" length="50.56" shape="474.72,-1.65 525.28,-1.65"/>
    </edge>
    <edge id=":R_20" function="internal">
        <lane id=":R_20_0" index="0" speed="13.89" length="12.27" shape="474.72,-1.65 486.23,-0.36 486.78,0.05"/>
    </edge>
    <edge id=":R_34" function="internal">
        <lane id=":R_34_0" index="0" speed="13.89" length="30.45" shape="488.17,-6.65 496.25,-9.06 505.74,-14.19 514.38,-21.38"/>
    </edge>
    <edge id=":R_35" function="internal">
        <lane id=":R_35_0" index="0" speed="13.89" length="25.72" shape="493.92,0.05 496.06,1.63 494.82,9.86 485.62,21.38"/>
    </edge>
    <edge id=":R_36" function="internal">
        <lane id=":R_36_0" index="0" speed="13.89" length="23.98" shape="486.78,0.05 491.49,3.52 490.52,9.99 483.29,19.04"/>
    </edge>
    <edge id=":R_21" function="internal">
        <lane id=":R_21_0" index="0" speed="13.89" length="6.64" shape="476.29,12.04 477.61,10.38 477.79,9.20 476.83,8.49 474.72,8.25"/>
    </edge>
    <edge id=":R_22" function="internal">
        <lane id=":R_22_0" index="0" speed="13.89" length="50.56" shape="476.29,12.04 512.04,-23.71"/>
    </edge>
    <edge id=":R_23" function="internal">
        <lane id=":R_23_0" index="0" speed="13.89" length="7.15" shape="478.62,14.38 481.91,10.25 482.20,8.40"/>
    </edge>
    <edge id=":R_24" function="internal">
        <lane id=":R_24_0" index="0" speed="13.89" length="50.56" shape="478.62,14.38 514.38,-21.38"/>
    </edge>
    <edge id=":R_25" function="internal">
        <lane id=":R_25_0" index="0" speed="13.89" length="26.27" shape="478.62,14.38 488.79,5.92 499.95,-0.12 500.29,-0.22"/>
    </edge>
    <edge id=":R_26" function="internal">
        <lane id=":R_26_0" index="0" speed="13.89" length="50.56" shape="480.96,16.71 516.71,-19.04"/>
    </edge>
    <edge id=":R_27" function="internal">
        <lane id=":R_27_0" index="0" speed="13.89" length="14.49" shape="480.96,16.71 490.61,8.68 492.31,7.76"/>
    </edge>
    <edge id=":R_37" function="internal">
        <lane id=":R_37_0" index="0" speed="13.89" length="9.36" shape="482.20,8.40 482.36,7.31 479.96,5.54 474.72,4.95"/>
    </edge>
    <edge id=":R_38" function="internal">
        <lane id=":R_38_0" index="0" speed="13.89" length="25.56" shape="500.29,-0.22 512.12,-3.74 525.28,-4.95"/>
    </edge>
    <edge id=":R_39" function="internal">
        <lane id=":R_39_0" index="0" speed="13.89" length="34.74" shape="492.31,7.76 501.22,2.94 512.77,-0.50 525.28,-1.65"/>
    </edge>
    <edge id=":U_0" function="internal">
        <lane id=":U_0_0" index="0" speed="13.89" length="5.00" shape="2.19,513.86 1.10,513.04 -0.00,512.76 -1.10,513.04 -2.19,513.86"/>
    </edge>
    <edge id=":U_1" function="internal">
        <lane id=":U_1_0" index="0" speed="13.89" length="22.70" shape="2.19,513.86 -13.86,497.81"/>
    </edge>
    <edge id=":U_2" function="internal">
        <lane id=":U_2_0" index="0" speed="13.89" length="5.28" shape="4.53,511.53 2.26,509.83 -0.00,509.26 -0.11,509.29"/>
    </edge>
    <edge id=":U_3" function="internal">
        <lane id=":U_3_0" index="0" speed="13.89" length="22.70" shape="4.53,511.53 -11.53,495.47"/>
    </edge>
    <edge id=":U_4" function="internal">
        <lane id=":U_4_0" index="0" speed="13.89" length="14.22" shape="4.53,511.53 0.20,505.76 -1.24,500.00 -0.98,498.95"/>
    </edge>
    <edge id=":U_5" function="internal">
        <lane id=":U_5_0" index="0" speed="13.89" length="22.70" shape="6.86,509.19 -9.19,493.14"/>
    </edge>
    <edge id=":U_6" function="internal">
        <lane id=":U_6_0" index="0" speed="13.89" length="7.47" shape="6.86,509.19 3.41,504.60 2.99,502.92"/>
    </edge>
    <edge id=":U_28" function="internal">
        <lane id=":U_28_0" index="0" speed="13.89" length="5.04" shape="-0.11,509.29 -2.26,509.83 -4.53,511.53"/>
    </edge>
    <edge id=":U_29" function="internal">
        <lane id=":U_29_0" index="0" speed="13.89" length="12.07" shape="-0.98,498.95 0.20,494.24 4.53,488.47"/>
    </edge>
    <edge id=":U_30" function="internal">
        <lane id=":U_30_0" index="0" speed="13.89" length="13.50" shape="2.99,502.92 2.26,500.00 3.41,495.40 6.86,490.81"/>
    </edge>
    <edge id=":U_7" function="internal">
        <lane id=":U_7_0" index="0" speed="13.89" length="5.00" shape="13.86,497.81 13.04,498.90 12.76,500.00 13.04,501.10 13.86,502.19"/>
    </edge>
    <edge id=":U_8" function="internal">
        <lane id=":U_8_0" index="0" speed="13.89" length="22.70" shape="13.86,497.81 -2.19,513.86"/>
    </edge>
    <edge id=":U_9" function="internal">
        <lane id=":U_9_0" index="0" speed="13.89" length="5.28" shape="11.53,495.47 9.83,497.74 9.26,500.00 9.29,500.11"/>
    </edge>
    <edge id=":U_10" function="internal">
        <lane id=":U_10_0" index="0" speed="13.89" length="22.70" shape="11.53,495.47 -4.53,511.53"/>
    </edge>
    <edge id=":U_11" function="internal">
        <lane id=":U_11_0" index="0" speed="13.89" length="14.22" shape="11.53,495.47 5.76,499.80 0.00,501.24 -1.05,500.98"/>
    </edge>
    <edge id=":U_12" function="internal">
        <lane id=":U_12_0" index="0" speed="13.89" length="22.70" shape="9.19,493.14 -6.86,509.19"/>
    </edge>
    <edge id=":U_13" function="internal">
        <lane id=":U_13_0" index="0" speed="13.89" length="7.47" shape="9.19,493.14 4.60,496.59 2.92,497.01"/>
    </edge>
    <edge id=":U_31" function="internal">
        <lane id=":U_31_0" index="0" speed="13.89" length="5.04" shape="9.29,500.11 9.83,502.26 11.53,504.53"/>
    </edge>
    <edge id=":U_32" function="internal">
        <lane id=":U_32_0" index="0" speed="13.89" length="12.07" shape="-1.05,500.98 -5.76,499.80 -11.53,495.47"/>
    </edge>
    <edge id=":U_33" function="internal">
        <lane id=":U_33_0" index="0" speed="13.89" length="13.50" shape="2.92,497.01 0.00,497.74 -4.60,496.59 -9.19,493.14"/>
    </edge>
    <edge id=":U_14" function="internal">
        <lane id=":U_14_0" index="0" speed="13.89" length="5.00" shape="-2.19,486.14 -1.10,486.96 0.00,487.24 1.10,486.96 2.19,486.14"/>
    </edge>
    <edge id=":U_15" function="internal">
        <lane id=":U_15_0" index="0" speed="13.89" length="22.70" shape="-2.19,486.14 13.86,502.19"/>
    </edge>
    <edge id=":U_16" function="internal">
        <lane id=":U_16_0" index="0" speed="13.89" length="5.28" shape="-4.53,488.47 -2.26,490.17 0.00,490.74 0.11,490.71"/>
    </edge>
    <edge id=":U_17" function="internal">
        <lane id=":U_17_0" index="0" speed="13.89" length="22.70" shape="-4.53,488.47 11.53,504.53"/>
    </edge>
    <edge id=":U_18" function="internal">
        <lane id=":U_18_0" index="0" speed="13.89" length="14.22" shape="-4.53,488.47 -0.20,494.24 1.24,500.00 0.98,501.05"/>
    </edge>
    <edge id=":U_19" function="internal">
        <lane id=":U_19_0" index="0" speed="13.89" length="22.70" shape="-6.86,490.81 9.19,506.86"/>
    </edge>
    <edge id=":U_20" function="internal">
        <lane id=":U_20_0" index="0" speed="13.89" length="7.47" shape="-6.86,490.81 -3.41,495.40 -2.99,497.08"/>
    </edge>
    <edge id=":U_34" function="internal">
        <lane id=":U_34_0" index="0" speed="13.89" length="5.04" shape="0.11,490.71 2.26,490.17 4.53,488.47"/>
    </edge>
    <edge id=":U_35" function="internal">
        <lane id=":U_35_0" index="0" speed="13.89" length="12.07" shape="0.98,501.05 -0.20,505.76 -4.53,511.53"/>
    </edge>
    <edge id=":U_36" function="internal">
        <lane id=":U_36_0" index="0" speed="13.89" length="13.50" shape="-2.99,497.08 -2.26,500.00 -3.41,504.60 -6.86,509.19"/>
    </edge>
    <edge id=":U_21" function="internal">
        <lane id=":U_21_0" index="0" speed="13.89" length="5.00" shape="-13.86,502.19 -13.04,501.10 -12.76,500.00 -13.04,498.90 -13.86,497.81"/>
    </edge>
    <edge id=":U_22" function="internal">
        <lane id=":U_22_0" index="0" speed="13.89" length="22.70" shape="-13.86,502.19 2.19,486.14"/>
    </edge>
    <edge id=":U_23" function="internal">
        <lane id=":U_23_0" index="0" speed="13.89" length="5.28" shape="-11.53,504.53 -9.83,502.26 -9.26,500.00 -9.29,499.89"/>
    </edge>
    <edge id=":U_24" function="internal">
        <lane id=":U_24_0" index="0" speed="13.89" length="22.70" shape="-11.53,504.53 4.53,488.47"/>
    </edge>
    <edge id=":U_25" function="internal">
        <lane id=":U_25_0" index="0" speed="13.89" length="14.22" shape="-11.53,504.53 -5.76,500.20 -0.00,498.76 1.05,499.02"/>
    </edge>
    <edge id=":U_26" function="internal">
        <lane id=":U_26_0" index="0" speed="13.89" length="22.70" shape="-9.19,506.86 6.86,490.81"/>
    </edge>
    <edge id=":U_27" function="internal">
        <lane id=":U_27_0" index="0" speed="13.89" length="7.47" shape="-9.19,506.86 -4.60,503.41 -2.92,502.99"/>
    </edge>
    <edge id=":U_37" function="internal">
        <lane id=":U_37_0" index="0" speed="13.89" length="5.04" shape="-9.29,499.89 -9.83,497.74 -11.53,495.47"/>
    </edge>
    <edge id=":U_38" function="internal">
        <lane id=":U_38_0" index="0" speed="13.89" length="12.07" shape="1.05,499.02 5.76,500.20 11.53,504.53"/>
    </edge>
    <edge id=":U_39" function="internal">
        <lane id=":U_39_0" index="0" speed="13.89" length="13.50" shape="-2.92,502.99 -0.00,502.26 4.60,503.41 9.19,506.86"/>
    </edge>

    <edge id="EasttoR" from="East" to="R" priority="1">
        <lane id="EasttoR_0" index="0" speed="13.89" length="474.72" shape="1000.00,8.25 525.28,8.25"/>
        <lane id="EasttoR_1" index="1" speed="13.89" length="474.72" shape="1000.00,4.95 525.28,4.95"/>
        <lane id="EasttoR_2" index="2" speed="13.89" length="474.72" shape="1000.00,1.65 525.28,1.65"/>
    </edge>
    <edge id="LtoR" from="L" to="R" priority="1">
        <lane id="LtoR_0" index="0" speed="13.89" length="949.44" shape="-474.72,-8.25 474.72,-8.25"/>
        <lane id="LtoR_1" index="1" speed="13.89" length="949.44" shape="-474.72,-4.95 474.72,-4.95"/>
        <lane id="LtoR_2" index="2" speed="13.89" length="949.44" shape="-474.72,-1.65 474.72,-1.65"/>
    </edge>
    <edge id="LtoSouthWest" from="L" to="SouthWest" priority="1">
        <lane id="LtoSouthWest_0" index="0" speed="13.89" length="474.64" shape="-523.71,-12.04 -859.33,-347.67"/>
        <lane id="LtoSouthWest_1" index="1" speed="13.89" length="474.64" shape="-521.38,-14.38 -857.00,-350.00"/>
        <lane id="LtoSouthWest_2" index="2" speed="13.89" length="474.64" shape="-519.04,-16.71 -854.67,-352.33"/>
    </edge>
    <edge id="LtoU" from="L" to="U" priority="1">
        <lane id="LtoU_0" index="0" speed="13.89" length="670.48" shape="-476.29,12.04 -2.19,486.14"/>
        <lane id="LtoU_1" index="1" speed="13.89" length="670.48" shape="-478.62,14.38 -4.53,488.47"/>
        <lane id="LtoU_2" index="2" speed="13.89" length="670.48" shape="-480.96,16.71 -6.86,490.81"/>
    </edge>
    <edge id="LtoWest" from="L" to="West" priority="1">
        <lane id="LtoWest_0" index="0" speed="13.89" length="474.72" shape="-525.28,8.25 -1000.00,8.25"/>
        <lane id="LtoWest_1" index="1" speed="13.89" length="474.72" shape="-525.28,4.95 -1000.00,4.95"/>
        <lane id="LtoWest_2" index="2" speed="13.89" length="474.72" shape="-525.28,1.65 -1000.00,1.65"/>
    </edge>
    <edge id="NorthEasttoU" from="NorthEast" to="U" priority="1">
        <lane id="NorthEasttoU_0" index="0" speed="13.89" length="488.57" shape="347.67,859.33 2.19,513.86"/>
        <lane id="NorthEasttoU_1" index="1" speed="13.89" length="488.57" shape="350.00,857.00 4.53,511.53"/>
        <lane id="NorthEasttoU_2" index="2" speed="13.89" length="488.57" shape="352.33,854.67 6.86,509.19"/>
    </edge>
    <edge id="NorthWesttoU" from="NorthWest" to="U" priority="1">
        <lane id="NorthWesttoU_0" index="0" speed="13.89" length="488.57" shape="-359.33,847.67 -13.86,502.19"/>
        <lane id="NorthWesttoU_1" index="1" speed="13.89" length="488.57" shape="-357.00,850.00 -11.53,504.53"/>
        <lane id="NorthWesttoU_2" index="2" speed="13.89" length="488.57" shape="-354.67,852.33 -9.19,506.86"/>
    </edge>
    <edge id="RtoEast" from="R" to="East" priority="1">
        <lane id="RtoEast_0" index="0" speed="13.89" length="474.72" shape="525.28,-8.25 1000.00,-8.25"/>
        <lane id="RtoEast_1" index="1" speed="13.89" length="474.72" shape="525.28,-4.95 1000.00,-4.95"/>
        <lane id="RtoEast_2" index="2" speed="13.89" length="474.72" shape="525.28,-1.65 1000.00,-1.65"/>
    </edge>
    <edge id="RtoL" from="R" to="L" priority="1">
        <lane id="RtoL_0" index="0" speed="13.89" length="949.44" shape="474.72,8.25 -474.72,8.25"/>
        <lane id="RtoL_1" index="1" speed="13.89" length="949.44" shape="474.72,4.95 -474.72,4.95"/>
        <lane id="RtoL_2" index="2" speed="13.89" length="949.44" shape="474.72,1.65 -474.72,1.65"/>
    </edge>
    <edge id="RtoSouthEast" from="R" to="SouthEast" priority="1">
        <lane id="RtoSouthEast_0" index="0" speed="13.89" length="474.64" shape="512.04,-23.71 847.67,-359.33"/>
        <lane id="RtoSouthEast_1" index="1" speed="13.89" length="474.64" shape="514.38,-21.38 850.00,-357.00"/>
        <lane id="RtoSouthEast_2" index="2" speed="13.89" length="474.64" shape="516.71,-19.04 852.33,-354.67"/>
    </edge>
    <edge id="RtoU" from="R" to="U" priority="1">
        <lane id="RtoU_0" index="0" speed="13.89" length="670.48" shape="487.96,23.71 13.86,497.81"/>
        <lane id="RtoU_1" index="1" speed="13.89" length="670.48" shape="485.62,21.38 11.53,495.47"/>
        <lane id="RtoU_2" index="2" speed="13.89" length="670.48" shape="483.29,19.04 9.19,493.14"/>
    </edge>
    <edge id="SouthEasttoR" from="SouthEast" to="R" priority="1">
        <lane id="SouthEasttoR_0" index="0" speed="13.89" length="474.64" shape="859.33,-347.67 523.71,-12.04"/>
        <lane id="SouthEasttoR_1" index="1" speed="13.89" length="474.64" shape="857.00,-350.00 521.38,-14.38"/>
        <lane id="SouthEasttoR_2" index="2" speed="13.89" length="474.64" shape="854.67,-352.33 519.04,-16.71"/>
    </edge>
    <edge id="SouthWesttoL" from="SouthWest" to="L" priority="1">
        <lane id="SouthWesttoL_0" index="0" speed="13.89" length="474.64" shape="-847.67,-359.33 -512.04,-23.71"/>
        <lane id="SouthWesttoL_1" index="1" speed="13.89" length="474.64" shape="-850.00,-357.00 -514.38,-21.38"/>
        <lane id="SouthWesttoL_2" index="2" speed="13.89" length="474.64" shape="-852.33,-354.67 -516.71,-19.04"/>
    </edge>
    <edge id="UtoL" from="U" to="L" priority="1">
        <lane id="UtoL_0" index="0" speed="13.89" length="670.48" shape="-13.86,497.81 -487.96,23.71"/>
        <lane id="UtoL_1" index="1" speed="13.89" length="670.48" shape="-11.53,495.47 -485.62,21.38"/>
        <lane id="UtoL_2" index="2" speed="13.89" length="670.48" shape="-9.19,493.14 -483.29,19.04"/>
    </edge>
    <edge id="UtoNorthEast" from="U" to="NorthEast" priority="1">
        <lane id="UtoNorthEast_0" index="0" speed="13.89" length="488.57" shape="13.86,502.19 359.33,847.67"/>
        <lane id="UtoNorthEast_1" index="1" speed="13.89" length="488.57" shape="11.53,504.53 357.00,850.00"/>
        <lane id="UtoNorthEast_2" index="2" speed="13.89" length="488.57" shape="9.19,506.86 354.67,852.33"/>
    </edge>
    <edge id="UtoNorthWest" from="U" to="NorthWest" priority="1">
        <lane id="UtoNorthWest_0" index="0" speed="13.89" length="488.57" shape="-2.19,513.86 -347.67,859.33"/>
        <lane id="UtoNorthWest_1" index="1" speed="13.89" length="488.57" shape="-4.53,511.53 -350.00,857.00"/>
        <lane id="UtoNorthWest_2" index="2" speed="13.89" length="488.57" shape="-6.86,509.19 -352.33,854.67"/>
    </edge>
    <edge id="UtoR" from="U" to="R" priority="1">
        <lane id="UtoR_0" index="0" speed="13.89" length="670.48" shape="2.19,486.14 476.29,12.04"/>
        <lane id="UtoR_1" index="1" speed="13.89" length="670.48" shape="4.53,488.47 478.62,14.38"/>
        <lane id="UtoR_2" index="2" speed="13.89" length="670.48" shape="6.86,490.81 480.96,16.71"/>
    </edge>
    <edge id="WesttoL" from="West" to="L" priority="1">
        <lane id="WesttoL_0" index="0" speed="13.89" length="474.72" shape="-1000.00,-8.25 -525.28,-8.25"/>
        <lane id="WesttoL_1" index="1" speed="13.89" length="474.72" shape="-1000.00,-4.95 -525.28,-4.95"/>
        <lane id="WesttoL_2" index="2" speed="13.89" length="474.72" shape="-1000.00,-1.65 -525.28,-1.65"/>
    </edge>

    <tlLogic id="L" type="static" programID="0" offset="0">
        <phase duration="33" state="GGgGgGgrrrrrrrGGgGgGgrrrrrrr"/>
        <phase duration="3" state="yyyyyygrrrrrrryyyyyygrrrrrrr"/>
        <phase duration="6" state="rrrrrrGrrrrrrrrrrrrrGrrrrrrr"/>
        <phase duration="3" state="rrrrrryrrrrrrrrrrrrryrrrrrrr"/>
        <phase duration="33" state="rrrrrrrGGgGgGgrrrrrrrGGgGgGg"/>
        <phase duration="3" state="rrrrrrryyyyyygrrrrrrryyyyyyg"/>
        <phase duration="6" state="rrrrrrrrrrrrrGrrrrrrrrrrrrrG"/>
        <phase duration="3" state="rrrrrrrrrrrrryrrrrrrrrrrrrry"/>
    </tlLogic>
    <tlLogic id="R" type="static" programID="0" offset="0">
        <phase duration="33" state="GGgGgGgrrrrrrrGGgGgGgrrrrrrr"/>
        <phase duration="3" state="yyyyyygrrrrrrryyyyyygrrrrrrr"/>
        <phase duration="6" state="rrrrrrGrrrrrrrrrrrrrGrrrrrrr"/>
        <phase duration="3" state="rrrrrryrrrrrrrrrrrrryrrrrrrr"/>
        <phase duration="33" state="rrrrrrrGGgGgGgrrrrrrrGGgGgGg"/>
        <phase duration="3" state="rrrrrrryyyyyygrrrrrrryyyyyyg"/>
        <phase duration="6" state="rrrrrrrrrrrrrGrrrrrrrrrrrrrG"/>